Version 4
SHEET 1 1348 680
WIRE 688 -160 560 -160
WIRE 944 -160 768 -160
WIRE 960 -160 944 -160
WIRE 1120 -160 1040 -160
WIRE 560 -80 560 -160
WIRE -256 -48 -672 -48
WIRE 1120 16 1120 -160
WIRE 912 64 656 64
WIRE 656 80 656 64
WIRE 656 80 512 80
WIRE -608 112 -848 112
WIRE -528 112 -608 112
WIRE 512 112 512 80
WIRE -848 128 -848 112
WIRE -256 128 -256 -48
WIRE -256 128 -288 128
WIRE -528 144 -528 112
WIRE -496 144 -528 144
WIRE 656 144 656 80
WIRE 720 144 656 144
WIRE -288 160 -304 160
WIRE -48 160 -288 160
WIRE 912 160 912 64
WIRE 912 160 864 160
WIRE -672 176 -672 -48
WIRE -656 176 -672 176
WIRE -608 176 -656 176
WIRE -496 176 -608 176
WIRE 688 176 528 176
WIRE 720 176 688 176
WIRE -176 192 -288 192
WIRE -160 192 -176 192
WIRE -48 192 -48 160
WIRE -48 192 -80 192
WIRE -32 192 -48 192
WIRE 64 192 -32 192
WIRE 128 192 64 192
WIRE 528 192 528 176
WIRE 528 192 384 192
WIRE 944 192 944 -160
WIRE 944 192 864 192
WIRE 688 208 688 176
WIRE 720 208 688 208
WIRE -176 224 -176 192
WIRE -32 224 -32 192
WIRE 880 224 864 224
WIRE 64 240 64 192
WIRE 528 240 528 192
WIRE 656 240 656 144
WIRE 720 240 656 240
WIRE -848 256 -848 208
WIRE -656 256 -656 176
WIRE -656 256 -848 256
WIRE 880 256 880 224
WIRE 944 256 880 256
WIRE 1056 256 1024 256
WIRE 1200 256 1056 256
WIRE -656 288 -656 256
WIRE 1056 288 1056 256
WIRE -176 336 -176 288
WIRE -32 336 -32 288
WIRE -32 336 -176 336
WIRE 64 336 64 304
WIRE 256 336 256 288
WIRE 256 336 64 336
WIRE 528 336 528 304
WIRE 528 336 256 336
WIRE -176 352 -176 336
WIRE 256 384 256 336
WIRE 1056 400 1056 352
FLAG -176 352 0
FLAG -656 288 0
FLAG 256 384 0
FLAG 512 112 0
FLAG 1200 256 VtoADC
IOPIN 1200 256 Out
FLAG 560 -80 0
FLAG 1120 16 0
FLAG 1056 400 0
SYMBOL Texas\\INA\\INA240A1 800 192 R180
SYMATTR InstName U1
SYMBOL Texas\\LM2596_5P0_TRANS -400 160 R0
SYMATTR InstName U2
SYMBOL voltage -848 112 R0
WINDOW 123 0 0 Left 0
WINDOW 39 0 0 Left 0
SYMATTR InstName V1
SYMATTR Value 12
SYMBOL cap -624 112 R0
SYMATTR InstName C1
SYMATTR Value 470µ
SYMBOL schottky -160 288 R180
WINDOW 0 24 64 Left 2
WINDOW 3 24 0 Left 2
SYMATTR InstName D1
SYMATTR Value 1N5819
SYMATTR Description Diode
SYMATTR Type diode
SYMBOL ind -176 208 R270
WINDOW 0 32 56 VTop 2
WINDOW 3 5 56 VBottom 2
SYMATTR InstName L1
SYMATTR Value 68µ
SYMBOL cap -48 224 R0
SYMATTR InstName C2
SYMATTR Value 220µ
SYMATTR SpiceLine Rser=5m
SYMBOL PowerProducts\\LT1117-3.3 256 192 R0
SYMATTR InstName U3
SYMBOL cap 48 240 R0
SYMATTR InstName C3
SYMATTR Value 22µ
SYMBOL cap 512 240 R0
SYMATTR InstName C4
SYMATTR Value 22µ
SYMBOL bi 688 -160 R270
WINDOW 0 32 40 VTop 2
WINDOW 3 167 -58 VBottom 2
SYMATTR InstName B1
SYMATTR Value I= (42 + 6*white(2e6*time/10) + 3*random(4e7*time/10) + white(3e4*time/10))
SYMBOL res 1056 -176 R90
WINDOW 0 0 56 VBottom 2
WINDOW 3 32 56 VTop 2
SYMATTR InstName R1
SYMATTR Value 750µ
SYMBOL res 1040 240 R90
WINDOW 0 0 56 VBottom 2
WINDOW 3 32 56 VTop 2
SYMATTR InstName R2
SYMATTR Value 690
SYMBOL cap 1040 288 R0
SYMATTR InstName C5
SYMATTR Value 100n
TEXT -882 550 Left 2 !.tran 2m
