Version 4
SHEET 1 880 680
WIRE 656 64 576 64
WIRE 48 80 -128 80
WIRE 576 80 576 64
WIRE 576 80 240 80
WIRE -128 96 -128 80
WIRE 656 96 656 64
WIRE 576 112 576 80
WIRE 304 144 240 144
WIRE 400 144 384 144
WIRE -128 192 -128 176
WIRE 48 192 -128 192
WIRE 400 208 240 208
WIRE 576 208 576 176
WIRE 576 208 400 208
WIRE 656 208 656 176
WIRE 656 208 576 208
WIRE 400 256 400 208
FLAG 400 256 0
SYMBOL cap 560 112 R0
SYMATTR InstName C2
SYMATTR Value 100n
SYMBOL voltage 656 80 R0
WINDOW 123 0 0 Left 0
WINDOW 39 0 0 Left 0
SYMATTR InstName V1
SYMATTR Value 5
SYMBOL Allegro\ Current\ Sensors\\ACS770 128 128 R0
SYMATTR InstName U1
SYMATTR SpiceLine Sensitivity=60m Polarity=1
SYMBOL res 400 128 R90
WINDOW 0 0 56 VBottom 2
WINDOW 3 32 56 VTop 2
SYMATTR InstName R1
SYMATTR Value 4.7k
SYMBOL cap 384 144 R0
SYMATTR InstName C1
SYMATTR Value 100n
SYMBOL bi -128 176 R180
WINDOW 0 24 80 Left 2
WINDOW 3 24 0 Left 2
SYMATTR InstName B1
SYMATTR Value I= (30 + 5*white(2e5*time/10) + 3*random(1e6*time/10) + 1*white(2e7*time/10))
TEXT -98 280 Left 2 !.tran 1m
