Version 4
SHEET 1 880 680
WIRE -48 -16 -144 -16
WIRE 64 -16 -48 -16
WIRE -144 64 -144 -16
WIRE 64 80 64 -16
WIRE 64 192 64 160
WIRE 256 192 64 192
WIRE 416 192 256 192
WIRE -144 208 -144 144
WIRE 64 208 64 192
WIRE 256 208 256 192
WIRE 64 320 64 288
WIRE 256 320 256 272
WIRE 256 320 64 320
WIRE 64 352 64 320
FLAG 64 352 0
FLAG -48 -16 Vbat
FLAG -144 208 0
FLAG 416 192 Out
SYMBOL res 48 64 R0
SYMATTR InstName R1
SYMATTR Value 220k
SYMATTR SpiceLine tol=1 pwr=0.1
SYMBOL res 48 192 R0
SYMATTR InstName R2
SYMATTR Value 13.3K
SYMATTR SpiceLine tol=1 pwr=0.1
SYMBOL bv -144 48 R0
WINDOW 3 -346 222 Left 2
SYMATTR InstName B1
SYMATTR Value V=(48 + 5*(white(2e7*time/10)))
SYMBOL cap 240 208 R0
SYMATTR InstName C1
SYMATTR Value 1n
SYMATTR SpiceLine V=100 Irms=940m Rser=0.0607607 Lser=0
TEXT -492 376 Left 2 !.tran 0.5m
