Version 4
SHEET 1 880 680
WIRE 256 -160 144 -160
WIRE 432 -160 256 -160
WIRE 256 -128 256 -160
WIRE 144 -64 144 -80
WIRE 256 -32 256 -64
WIRE 432 0 432 -160
WIRE 432 0 320 0
WIRE 96 96 -320 96
WIRE 320 96 320 0
WIRE 320 96 288 96
WIRE -320 112 -320 96
WIRE 432 144 432 80
WIRE 432 144 288 144
WIRE 512 192 288 192
WIRE 624 192 592 192
WIRE 704 192 624 192
WIRE 96 224 0 224
WIRE 624 224 624 192
WIRE 336 240 288 240
WIRE 0 256 0 224
WIRE 336 272 336 240
WIRE -320 288 -320 192
WIRE 624 320 624 288
FLAG -320 288 0
FLAG 0 256 0
FLAG 144 -64 0
FLAG 256 -32 0
FLAG 336 272 0
FLAG 624 320 0
SYMBOL Allegro\ Current\ Sensors\\ACS71240 192 128 R0
SYMATTR InstName U1
SYMATTR SpiceLine Sensitivity=44m IRpMAX=30 Polarity=2 VCC_typ=3.3
SYMBOL res 416 -16 R0
SYMATTR InstName R1
SYMATTR Value 16.2K
SYMATTR SpiceLine tol=1 pwr=0.1
SYMBOL voltage 144 -176 R0
WINDOW 123 0 0 Left 0
WINDOW 39 0 0 Left 0
SYMATTR InstName V1
SYMATTR Value 3.3
SYMBOL cap 240 -128 R0
SYMATTR InstName C1
SYMATTR Value 0.1µ
SYMATTR SpiceLine V=16 Irms=3.85 Rser=0.0464862 Lser=0 mfg="KEMET" pn="C0402C104K4PAC" type="X5R"
SYMBOL res 608 176 R90
WINDOW 0 0 56 VBottom 2
WINDOW 3 32 56 VTop 2
SYMATTR InstName R2
SYMATTR Value 1.62K
SYMATTR SpiceLine tol=1 pwr=0.1
SYMBOL cap 608 224 R0
SYMATTR InstName C2
SYMATTR Value 0.1µ
SYMATTR SpiceLine V=16 Irms=3.85 Rser=0.0464862 Lser=0 mfg="KEMET" pn="C0402C104K4PAC" type="X5R"
SYMBOL bi -320 192 R180
WINDOW 0 24 80 Left 2
WINDOW 3 24 0 Left 2
SYMATTR InstName B1
SYMATTR Value I= (20 + 12*white(time/10) + 5*random(4e5*time/10) + white(3e8*time/10))
TEXT -370 344 Left 2 !.tran 10m
